
Version,
  23.1;                                   !- Version Identifier

Timestep,
  6;                                      !- Number of Timesteps per Hour

LifeCycleCost:Parameters,
  Life Cycle Cost Parameters,             !- Name
  EndOfYear,                              !- Discounting Convention
  ConstantDollar,                         !- Inflation Approach
  0.03,                                   !- Real Discount Rate
  ,                                       !- Nominal Discount Rate
  ,                                       !- Inflation
  ,                                       !- Base Date Month
  2011,                                   !- Base Date Year
  ,                                       !- Service Date Month
  2011,                                   !- Service Date Year
  25,                                     !- Length of Study Period in Years
  ,                                       !- Tax rate
  None;                                   !- Depreciation Method

LifeCycleCost:UsePriceEscalation,
  U.S. Avg  Commercial-Electricity,       !- Name
  Electricity,                            !- Resource
  2011,                                   !- Escalation Start Year
  January,                                !- Escalation Start Month
  0.9838,                                 !- Year Escalation 1
  0.9730,                                 !- Year Escalation 2
  0.9632,                                 !- Year Escalation 3
  0.9611,                                 !- Year Escalation 4
  0.9571,                                 !- Year Escalation 5
  0.9553,                                 !- Year Escalation 6
  0.9539,                                 !- Year Escalation 7
  0.9521,                                 !- Year Escalation 8
  0.9546,                                 !- Year Escalation 9
  0.9550,                                 !- Year Escalation 10
  0.9553,                                 !- Year Escalation 11
  0.9564,                                 !- Year Escalation 12
  0.9575,                                 !- Year Escalation 13
  0.9596,                                 !- Year Escalation 14
  0.9618,                                 !- Year Escalation 15
  0.9614,                                 !- Year Escalation 16
  0.9618,                                 !- Year Escalation 17
  0.9618,                                 !- Year Escalation 18
  0.9593,                                 !- Year Escalation 19
  0.9589,                                 !- Year Escalation 20
  0.9607,                                 !- Year Escalation 21
  0.9625,                                 !- Year Escalation 22
  0.9650,                                 !- Year Escalation 23
  0.9708,                                 !- Year Escalation 24
  0.9751,                                 !- Year Escalation 25
  0.9762,                                 !- Year Escalation 26
  0.9766,                                 !- Year Escalation 27
  0.9766,                                 !- Year Escalation 28
  0.9769,                                 !- Year Escalation 29
  0.9773;                                 !- Year Escalation 30

LifeCycleCost:UsePriceEscalation,
  U.S. Avg  Commercial-Distillate Oil,    !- Name
  FuelOilNo1,                             !- Resource
  2011,                                   !- Escalation Start Year
  January,                                !- Escalation Start Month
  0.9714,                                 !- Year Escalation 1
  0.9730,                                 !- Year Escalation 2
  0.9942,                                 !- Year Escalation 3
  1.0164,                                 !- Year Escalation 4
  1.0541,                                 !- Year Escalation 5
  1.0928,                                 !- Year Escalation 6
  1.1267,                                 !- Year Escalation 7
  1.1580,                                 !- Year Escalation 8
  1.1792,                                 !- Year Escalation 9
  1.1967,                                 !- Year Escalation 10
  1.2200,                                 !- Year Escalation 11
  1.2333,                                 !- Year Escalation 12
  1.2566,                                 !- Year Escalation 13
  1.2709,                                 !- Year Escalation 14
  1.2826,                                 !- Year Escalation 15
  1.2985,                                 !- Year Escalation 16
  1.3102,                                 !- Year Escalation 17
  1.3250,                                 !- Year Escalation 18
  1.3261,                                 !- Year Escalation 19
  1.3282,                                 !- Year Escalation 20
  1.3324,                                 !- Year Escalation 21
  1.3356,                                 !- Year Escalation 22
  1.3431,                                 !- Year Escalation 23
  1.3510,                                 !- Year Escalation 24
  1.3568,                                 !- Year Escalation 25
  1.3606,                                 !- Year Escalation 26
  1.3637,                                 !- Year Escalation 27
  1.3674,                                 !- Year Escalation 28
  1.3706,                                 !- Year Escalation 29
  1.3743;                                 !- Year Escalation 30

LifeCycleCost:UsePriceEscalation,
  U.S. Avg  Commercial-Residual Oil,      !- Name
  FuelOilNo2,                             !- Resource
  2011,                                   !- Escalation Start Year
  January,                                !- Escalation Start Month
  0.8469,                                 !- Year Escalation 1
  0.8257,                                 !- Year Escalation 2
  0.8681,                                 !- Year Escalation 3
  0.8988,                                 !- Year Escalation 4
  0.9289,                                 !- Year Escalation 5
  0.9604,                                 !- Year Escalation 6
  0.9897,                                 !- Year Escalation 7
  1.0075,                                 !- Year Escalation 8
  1.0314,                                 !- Year Escalation 9
  1.0554,                                 !- Year Escalation 10
  1.0861,                                 !- Year Escalation 11
  1.1278,                                 !- Year Escalation 12
  1.1497,                                 !- Year Escalation 13
  1.1620,                                 !- Year Escalation 14
  1.1743,                                 !- Year Escalation 15
  1.1852,                                 !- Year Escalation 16
  1.1948,                                 !- Year Escalation 17
  1.2037,                                 !- Year Escalation 18
  1.2071,                                 !- Year Escalation 19
  1.2119,                                 !- Year Escalation 20
  1.2139,                                 !- Year Escalation 21
  1.2194,                                 !- Year Escalation 22
  1.2276,                                 !- Year Escalation 23
  1.2365,                                 !- Year Escalation 24
  1.2420,                                 !- Year Escalation 25
  1.2461,                                 !- Year Escalation 26
  1.2509,                                 !- Year Escalation 27
  1.2550,                                 !- Year Escalation 28
  1.2591,                                 !- Year Escalation 29
  1.2638;                                 !- Year Escalation 30

LifeCycleCost:UsePriceEscalation,
  U.S. Avg  Commercial-Natural gas,       !- Name
  NaturalGas,                             !- Resource
  2011,                                   !- Escalation Start Year
  January,                                !- Escalation Start Month
  0.9823,                                 !- Year Escalation 1
  0.9557,                                 !- Year Escalation 2
  0.9279,                                 !- Year Escalation 3
  0.9257,                                 !- Year Escalation 4
  0.9346,                                 !- Year Escalation 5
  0.9412,                                 !- Year Escalation 6
  0.9512,                                 !- Year Escalation 7
  0.9645,                                 !- Year Escalation 8
  0.9856,                                 !- Year Escalation 9
  1.0067,                                 !- Year Escalation 10
  1.0222,                                 !- Year Escalation 11
  1.0410,                                 !- Year Escalation 12
  1.0610,                                 !- Year Escalation 13
  1.0787,                                 !- Year Escalation 14
  1.0942,                                 !- Year Escalation 15
  1.1098,                                 !- Year Escalation 16
  1.1220,                                 !- Year Escalation 17
  1.1308,                                 !- Year Escalation 18
  1.1386,                                 !- Year Escalation 19
  1.1486,                                 !- Year Escalation 20
  1.1619,                                 !- Year Escalation 21
  1.1763,                                 !- Year Escalation 22
  1.1918,                                 !- Year Escalation 23
  1.2118,                                 !- Year Escalation 24
  1.2284,                                 !- Year Escalation 25
  1.2439,                                 !- Year Escalation 26
  1.2605,                                 !- Year Escalation 27
  1.2772,                                 !- Year Escalation 28
  1.2938,                                 !- Year Escalation 29
  1.3115;                                 !- Year Escalation 30

LifeCycleCost:UsePriceEscalation,
  U.S. Avg  Commercial-Coal,              !- Name
  Coal,                                   !- Resource
  2011,                                   !- Escalation Start Year
  January,                                !- Escalation Start Month
  0.9970,                                 !- Year Escalation 1
  1.0089,                                 !- Year Escalation 2
  1.0089,                                 !- Year Escalation 3
  0.9941,                                 !- Year Escalation 4
  0.9941,                                 !- Year Escalation 5
  1.0000,                                 !- Year Escalation 6
  1.0030,                                 !- Year Escalation 7
  1.0059,                                 !- Year Escalation 8
  1.0089,                                 !- Year Escalation 9
  1.0119,                                 !- Year Escalation 10
  1.0148,                                 !- Year Escalation 11
  1.0178,                                 !- Year Escalation 12
  1.0208,                                 !- Year Escalation 13
  1.0267,                                 !- Year Escalation 14
  1.0297,                                 !- Year Escalation 15
  1.0356,                                 !- Year Escalation 16
  1.0415,                                 !- Year Escalation 17
  1.0534,                                 !- Year Escalation 18
  1.0564,                                 !- Year Escalation 19
  1.0593,                                 !- Year Escalation 20
  1.0653,                                 !- Year Escalation 21
  1.0712,                                 !- Year Escalation 22
  1.0742,                                 !- Year Escalation 23
  1.0801,                                 !- Year Escalation 24
  1.0831,                                 !- Year Escalation 25
  1.0831,                                 !- Year Escalation 26
  1.0861,                                 !- Year Escalation 27
  1.0890,                                 !- Year Escalation 28
  1.0920,                                 !- Year Escalation 29
  1.0950;                                 !- Year Escalation 30

Building,
  -MediumOfficeDetailed-ASHRAE 169-2013-5B created: 2023-06-22 23:55:44 -0700, !- Name
  0,                                      !- North Axis {deg}
  City,                                   !- Terrain
  ,                                       !- Loads Convergence Tolerance Value {W}
  ,                                       !- Temperature Convergence Tolerance Value {deltaC}
  ,                                       !- Solar Distribution
  ,                                       !- Maximum Number of Warmup Days
  ;                                       !- Minimum Number of Warmup Days

Zone,
  ActiveStorage_Bot_1 ZN,                 !- Name
  -0,                                     !- Direction of Relative North {deg}
  0,                                      !- X Origin {m}
  0,                                      !- Y Origin {m}
  0,                                      !- Z Origin {m}
  ,                                       !- Type
  1,                                      !- Multiplier
  ,                                       !- Ceiling Height {m}
  ,                                       !- Volume {m3}
  ,                                       !- Floor Area {m2}
  ,                                       !- Zone Inside Convection Algorithm
  ,                                       !- Zone Outside Convection Algorithm
  Yes;                                    !- Part of Total Floor Area

Space,
  ActiveStorage_Bot_1,                    !- Name
  ActiveStorage_Bot_1 ZN,                 !- Zone Name
  ,                                       !- Ceiling Height {m}
  ,                                       !- Volume {m3}
  ,                                       !- Floor Area {m2}
  MediumOffice - Storage;                 !- Space Type

SpaceList,
  MediumOffice - Storage,                 !- Name
  ActiveStorage_Bot_2,                    !- Space Name 1
  ActiveStorage_Bot_4,                    !- Space Name 2
  ActiveStorage_Mid_4,                    !- Space Name 3
  ActiveStorage_Mid_2,                    !- Space Name 4
  ActiveStorage_Bot_3,                    !- Space Name 5
  ActiveStorage_Bot_1,                    !- Space Name 6
  ActiveStorage_Mid_1,                    !- Space Name 7
  ActiveStorage_Top_2,                    !- Space Name 8
  ActiveStorage_Mid_3,                    !- Space Name 9
  ActiveStorage_Top_4,                    !- Space Name 10
  ActiveStorage_Top_3,                    !- Space Name 11
  ActiveStorage_Top_1;                    !- Space Name 12

Lights,
  MediumOffice - Storage Lights,          !- Name
  MediumOffice - Storage,                 !- Zone or ZoneList or Space or SpaceList Name
  OfficeMedium BLDG_LIGHT_SCH_2013,       !- Schedule Name
  Watts/Area,                             !- Design Level Calculation Method
  ,                                       !- Lighting Level {W}
  4.09028595834969,                       !- Watts per Zone Floor Area {W/m2}
  ,                                       !- Watts per Person {W/person}
  0,                                      !- Return Air Fraction
  0.7,                                    !- Fraction Radiant
  0.2,                                    !- Fraction Visible
  0,                                      !- Fraction Replaceable
  General;                                !- End-Use Subcategory

ScheduleTypeLimits,
  Fractional,                             !- Name
  0,                                      !- Lower Limit Value {BasedOnField A3}
  1,                                      !- Upper Limit Value {BasedOnField A3}
  Continuous;                             !- Numeric Type

Schedule:Day:Interval,
  OfficeMedium BLDG_LIGHT_SCH_2013 Sun Day, !- Name
  Fractional,                             !- Schedule Type Limits Name
  No,                                     !- Interpolate to Timestep
  06:00,                                  !- Time 1 {hh:mm}
  0.05,                                   !- Value Until Time 1
  18:00,                                  !- Time 2 {hh:mm}
  0.04311628,                             !- Value Until Time 2
  24:00,                                  !- Time 3 {hh:mm}
  0.05;                                   !- Value Until Time 3

Schedule:Day:Interval,
  OfficeMedium BLDG_LIGHT_SCH_2013 Wkdy Day, !- Name
  Fractional,                             !- Schedule Type Limits Name
  No,                                     !- Interpolate to Timestep
  05:00,                                  !- Time 1 {hh:mm}
  0.05,                                   !- Value Until Time 1
  06:00,                                  !- Time 2 {hh:mm}
  0.1,                                    !- Value Until Time 2
  07:00,                                  !- Time 3 {hh:mm}
  0.08623256,                             !- Value Until Time 3
  08:00,                                  !- Time 4 {hh:mm}
  0.25869768,                             !- Value Until Time 4
  17:00,                                  !- Time 5 {hh:mm}
  0.77609304,                             !- Value Until Time 5
  18:00,                                  !- Time 6 {hh:mm}
  0.4311628,                              !- Value Until Time 6
  20:00,                                  !- Time 7 {hh:mm}
  0.25869768,                             !- Value Until Time 7
  22:00,                                  !- Time 8 {hh:mm}
  0.17246512,                             !- Value Until Time 8
  23:00,                                  !- Time 9 {hh:mm}
  0.08623256,                             !- Value Until Time 9
  24:00,                                  !- Time 10 {hh:mm}
  0.04311628;                             !- Value Until Time 10

Schedule:Day:Interval,
  OfficeMedium BLDG_LIGHT_SCH_2013 Sat Day, !- Name
  Fractional,                             !- Schedule Type Limits Name
  No,                                     !- Interpolate to Timestep
  06:00,                                  !- Time 1 {hh:mm}
  0.05,                                   !- Value Until Time 1
  08:00,                                  !- Time 2 {hh:mm}
  0.08623256,                             !- Value Until Time 2
  12:00,                                  !- Time 3 {hh:mm}
  0.25869768,                             !- Value Until Time 3
  17:00,                                  !- Time 4 {hh:mm}
  0.12934884,                             !- Value Until Time 4
  19:00,                                  !- Time 5 {hh:mm}
  0.04311628,                             !- Value Until Time 5
  24:00,                                  !- Time 6 {hh:mm}
  0.05;                                   !- Value Until Time 6

Schedule:Week:Daily,
  OfficeMedium BLDG_LIGHT_SCH_2013 Week Rule - Jan1-Dec31, !- Name
  OfficeMedium BLDG_LIGHT_SCH_2013 Sun Day, !- Sunday Schedule:Day Name
  OfficeMedium BLDG_LIGHT_SCH_2013 Wkdy Day, !- Monday Schedule:Day Name
  OfficeMedium BLDG_LIGHT_SCH_2013 Wkdy Day, !- Tuesday Schedule:Day Name
  OfficeMedium BLDG_LIGHT_SCH_2013 Wkdy Day, !- Wednesday Schedule:Day Name
  OfficeMedium BLDG_LIGHT_SCH_2013 Wkdy Day, !- Thursday Schedule:Day Name
  OfficeMedium BLDG_LIGHT_SCH_2013 Wkdy Day, !- Friday Schedule:Day Name
  OfficeMedium BLDG_LIGHT_SCH_2013 Sat Day, !- Saturday Schedule:Day Name
  Schedule Day 5,                         !- Holiday Schedule:Day Name
  OfficeMedium BLDG_LIGHT_SCH_2013 Summer Design Day, !- SummerDesignDay Schedule:Day Name
  OfficeMedium BLDG_LIGHT_SCH_2013 Winter Design Day, !- WinterDesignDay Schedule:Day Name
  Schedule Day 5,                         !- CustomDay1 Schedule:Day Name
  Schedule Day 5;                         !- CustomDay2 Schedule:Day Name

Schedule:Year,
  OfficeMedium BLDG_LIGHT_SCH_2013,       !- Name
  Fractional,                             !- Schedule Type Limits Name
  OfficeMedium BLDG_LIGHT_SCH_2013 Week Rule - Jan1-Dec31, !- Schedule:Week Name 1
  1,                                      !- Start Month 1
  1,                                      !- Start Day 1
  12,                                     !- End Month 1
  31;                                     !- End Day 1

Schedule:Day:Interval,
  Schedule Day 5,                         !- Name
  Fractional,                             !- Schedule Type Limits Name
  No,                                     !- Interpolate to Timestep
  24:00,                                  !- Time 1 {hh:mm}
  0;                                      !- Value Until Time 1

Schedule:Day:Interval,
  OfficeMedium BLDG_LIGHT_SCH_2013 Summer Design Day, !- Name
  Fractional,                             !- Schedule Type Limits Name
  No,                                     !- Interpolate to Timestep
  24:00,                                  !- Time 1 {hh:mm}
  1;                                      !- Value Until Time 1

Schedule:Day:Interval,
  OfficeMedium BLDG_LIGHT_SCH_2013 Winter Design Day, !- Name
  Fractional,                             !- Schedule Type Limits Name
  No,                                     !- Interpolate to Timestep
  24:00,                                  !- Time 1 {hh:mm}
  0;                                      !- Value Until Time 1

BuildingSurface:Detailed,
  ActiveStorage_Bot_1 - Floor_a,          !- Name
  Floor,                                  !- Surface Type
  Foundation F 09 Perim 0 Area 3619,      !- Construction Name
  ActiveStorage_Bot_1 ZN,                 !- Zone Name
  ActiveStorage_Bot_1,                    !- Space Name
  GroundFCfactorMethod,                   !- Outside Boundary Condition
  ,                                       !- Outside Boundary Condition Object
  NoSun,                                  !- Sun Exposure
  NoWind,                                 !- Wind Exposure
  ,                                       !- View Factor to Ground
  ,                                       !- Number of Vertices
  23.4315, 11.0410625, 0,                 !- X,Y,Z Vertex 1 {m}
  23.4315, 6.5611375, 0,                  !- X,Y,Z Vertex 2 {m}
  15.3543, 6.5611375, 0,                  !- X,Y,Z Vertex 3 {m}
  15.3543, 11.0410625, 0;                 !- X,Y,Z Vertex 4 {m}

BuildingSurface:Detailed,
  ActiveStorage_Bot_1 - RoofCeiling_a,    !- Name
  Ceiling,                                !- Surface Type
  Typical Interior Ceiling,               !- Construction Name
  ActiveStorage_Bot_1 ZN,                 !- Zone Name
  ActiveStorage_Bot_1,                    !- Space Name
  Surface,                                !- Outside Boundary Condition
  FirstFloor_Plenum - Floor_v,            !- Outside Boundary Condition Object
  NoSun,                                  !- Sun Exposure
  NoWind,                                 !- Wind Exposure
  ,                                       !- View Factor to Ground
  ,                                       !- Number of Vertices
  23.4315, 6.5611375, 2.7432,             !- X,Y,Z Vertex 1 {m}
  23.4315, 11.0410625, 2.7432,            !- X,Y,Z Vertex 2 {m}
  15.3543, 11.0410625, 2.7432,            !- X,Y,Z Vertex 3 {m}
  15.3543, 6.5611375, 2.7432;             !- X,Y,Z Vertex 4 {m}

BuildingSurface:Detailed,
  ActiveStorage_Bot_1 - Wall 000_a,       !- Name
  Wall,                                   !- Surface Type
  Typical Interior Wall,                  !- Construction Name
  ActiveStorage_Bot_1 ZN,                 !- Zone Name
  ActiveStorage_Bot_1,                    !- Space Name
  Surface,                                !- Outside Boundary Condition
  Restroom_Bot - Wall 180_a,              !- Outside Boundary Condition Object
  NoSun,                                  !- Sun Exposure
  NoWind,                                 !- Wind Exposure
  ,                                       !- View Factor to Ground
  ,                                       !- Number of Vertices
  23.4315, 11.0410625, 2.7432,            !- X,Y,Z Vertex 1 {m}
  23.4315, 11.0410625, 0,                 !- X,Y,Z Vertex 2 {m}
  18.0975, 11.0410625, 0,                 !- X,Y,Z Vertex 3 {m}
  18.0975, 11.0410625, 2.7432;            !- X,Y,Z Vertex 4 {m}

BuildingSurface:Detailed,
  ActiveStorage_Bot_1 - Wall 000_b,       !- Name
  Wall,                                   !- Surface Type
  Typical Interior Wall,                  !- Construction Name
  ActiveStorage_Bot_1 ZN,                 !- Zone Name
  ActiveStorage_Bot_1,                    !- Space Name
  Surface,                                !- Outside Boundary Condition
  Stair_Bot_1 - Wall 180_a,               !- Outside Boundary Condition Object
  NoSun,                                  !- Sun Exposure
  NoWind,                                 !- Wind Exposure
  ,                                       !- View Factor to Ground
  ,                                       !- Number of Vertices
  18.0975, 11.0410625, 2.7432,            !- X,Y,Z Vertex 1 {m}
  18.0975, 11.0410625, 0,                 !- X,Y,Z Vertex 2 {m}
  15.3543, 11.0410625, 0,                 !- X,Y,Z Vertex 3 {m}
  15.3543, 11.0410625, 2.7432;            !- X,Y,Z Vertex 4 {m}

BuildingSurface:Detailed,
  ActiveStorage_Bot_1 - Wall 090_a,       !- Name
  Wall,                                   !- Surface Type
  Typical Interior Wall,                  !- Construction Name
  ActiveStorage_Bot_1 ZN,                 !- Zone Name
  ActiveStorage_Bot_1,                    !- Space Name
  Surface,                                !- Outside Boundary Condition
  Lobby_Bot - Wall 270_b,                 !- Outside Boundary Condition Object
  NoSun,                                  !- Sun Exposure
  NoWind,                                 !- Wind Exposure
  ,                                       !- View Factor to Ground
  ,                                       !- Number of Vertices
  23.4315, 6.5611375, 2.7432,             !- X,Y,Z Vertex 1 {m}
  23.4315, 6.5611375, 0,                  !- X,Y,Z Vertex 2 {m}
  23.4315, 11.0410625, 0,                 !- X,Y,Z Vertex 3 {m}
  23.4315, 11.0410625, 2.7432;            !- X,Y,Z Vertex 4 {m}

BuildingSurface:Detailed,
  ActiveStorage_Bot_1 - Wall 180_a,       !- Name
  Wall,                                   !- Surface Type
  Typical Interior Wall,                  !- Construction Name
  ActiveStorage_Bot_1 ZN,                 !- Zone Name
  ActiveStorage_Bot_1,                    !- Space Name
  Surface,                                !- Outside Boundary Condition
  Corridor_Bot_1 - Wall 000_d,            !- Outside Boundary Condition Object
  NoSun,                                  !- Sun Exposure
  NoWind,                                 !- Wind Exposure
  ,                                       !- View Factor to Ground
  ,                                       !- Number of Vertices
  15.3543, 6.5611375, 2.7432,             !- X,Y,Z Vertex 1 {m}
  15.3543, 6.5611375, 0,                  !- X,Y,Z Vertex 2 {m}
  23.4315, 6.5611375, 0,                  !- X,Y,Z Vertex 3 {m}
  23.4315, 6.5611375, 2.7432;             !- X,Y,Z Vertex 4 {m}

BuildingSurface:Detailed,
  ActiveStorage_Bot_1 - Wall 270_a,       !- Name
  Wall,                                   !- Surface Type
  Typical Interior Wall,                  !- Construction Name
  ActiveStorage_Bot_1 ZN,                 !- Zone Name
  ActiveStorage_Bot_1,                    !- Space Name
  Surface,                                !- Outside Boundary Condition
  OpenOffice_Bot_1 - Wall 090_c,          !- Outside Boundary Condition Object
  NoSun,                                  !- Sun Exposure
  NoWind,                                 !- Wind Exposure
  ,                                       !- View Factor to Ground
  ,                                       !- Number of Vertices
  15.3543, 11.0410625, 2.7432,            !- X,Y,Z Vertex 1 {m}
  15.3543, 11.0410625, 0,                 !- X,Y,Z Vertex 2 {m}
  15.3543, 6.5611375, 0,                  !- X,Y,Z Vertex 3 {m}
  15.3543, 6.5611375, 2.7432;             !- X,Y,Z Vertex 4 {m}

InternalMass,
  ActiveStorage_Bot_1 Mass,               !- Name
  InteriorFurnishings,                    !- Construction Name
  ActiveStorage_Bot_1 ZN,                 !- Zone or ZoneList Name
  ActiveStorage_Bot_1,                    !- Space or SpaceList Name
  72.37050042;                            !- Surface Area {m2}

ZoneControl:Thermostat,
  ActiveStorage_Bot_1 ZN Thermostat,      !- Name
  ActiveStorage_Bot_1 ZN,                 !- Zone or ZoneList Name
  ActiveStorage_Bot_1 ZN Thermostat Schedule, !- Control Type Schedule Name
  ThermostatSetpoint:DualSetpoint,        !- Control 1 Object Type
  MediumOffice - Storage Thermostat 1,    !- Control 1 Name
  ,                                       !- Control 2 Object Type
  ,                                       !- Control 2 Name
  ,                                       !- Control 3 Object Type
  ,                                       !- Control 3 Name
  ,                                       !- Control 4 Object Type
  ,                                       !- Control 4 Name
  0;                                      !- Temperature Difference Between Cutout And Setpoint {deltaC}

Schedule:Compact,
  ActiveStorage_Bot_1 ZN Thermostat Schedule, !- Name
  ActiveStorage_Bot_1 ZN Thermostat Schedule Type Limits, !- Schedule Type Limits Name
  Through: 12/31,                         !- Field 1
  For: AllDays,                           !- Field 2
  Until: 24:00,                           !- Field 3
  4;                                      !- Field 4

ScheduleTypeLimits,
  ActiveStorage_Bot_1 ZN Thermostat Schedule Type Limits, !- Name
  0,                                      !- Lower Limit Value {BasedOnField A3}
  4,                                      !- Upper Limit Value {BasedOnField A3}
  DISCRETE;                               !- Numeric Type

ThermostatSetpoint:DualSetpoint,
  MediumOffice - Storage Thermostat 1,    !- Name
  OfficeMedium HTGSETP_SCH_YES_OPTIMUM - occupant standby mode, !- Heating Setpoint Temperature Schedule Name
  OfficeMedium CLGSETP_SCH_YES_OPTIMUM - occupant standby mode; !- Cooling Setpoint Temperature Schedule Name

ScheduleTypeLimits,